2024_89_CemigReconfigurationCases/1_SEsCemig/NOG02/NOG02Transformadores.dss
new transformer.100360 Phases=1,Windings=3,Buses=[BMT167947099.1 BBT967996.1.0 BBT967996.0.2],Conns=[wye wye wye],kvs=[7.967 0.12 0.12],kvas=[15.000000000 15.000000000 15.000000000],Taps=[1,1.000000000,1.000000000],XHL=2.123000000,XHT=2.123000000,XLT=1.415000000,%loadloss=1.600000000,%noloadloss=0.400000000
new transformer.100367 Phases=3,Windings=2,Buses=[BMT101979677.1.2.3 BBT968115.1.2.3.0],Conns=[delta wye],kvs=[13.8 0.22],kvas=[30.000000000 30.000000000],Taps=[1,1.000000000],XHL=3.564000000,%loadloss=1.667000000,%noloadloss=0.433333333
new transformer.100381 Phases=3,Windings=2,Buses=[BMT101979726.1.2.3 BBT968234.1.2.3.0],Conns=[delta wye],kvs=[13.8 0.22],kvas=[45.000000000 45.000000000],Taps=[1,1.000000000],XHL=3.636000000,%loadloss=1.522000000,%noloadloss=0.377777778
new transformer.100388 Phases=1,Windings=3,Buses=[BMT173556416.3 BBT968332.1.0 BBT968332.0.2],Conns=[wye wye wye],kvs=[7.967 0.12 0.12],kvas=[15.000000000 15.000000000 15.000000000],Taps=[1,1.000000000,1.000000000],XHL=2.123000000,XHT=2.123000000,XLT=1.415000000,%loadloss=1.600000000,%noloadloss=0.400000000
new transformer.100395 Phases=3,Windings=2,Buses=[BMT174830804.1.2.3 BBT968402.1.2.3.0],Conns=[delta wye],kvs=[13.8 0.22],kvas=[75.000000000 75.000000000],Taps=[1,1.000000000],XHL=3.721000000,%loadloss=1.340000000,%noloadloss=0.340000000
new transformer.100409 Phases=3,Windings=2,Buses=[BMT101958201.1.2.3 BBT968507.1.2.3.0],Conns=[delta wye],kvs=[13.8 0.22],kvas=[15.000000000 15.000000000],Taps=[1,1.000000000],XHL=3.362000000,%loadloss=1.967000000,%noloadloss=0.500000000
new transformer.100416 Phases=3,Windings=2,Buses=[BMT174830738.1.2.3 BBT968619.1.2.3.0],Conns=[delta wye],kvs=[13.8 0.22],kvas=[30.000000000 30.000000000],Taps=[1,1.000000000],XHL=3.564000000,%loadloss=1.667000000,%noloadloss=0.433333333
new transformer.100472 Phases=3,Windings=2,Buses=[BMT170540959.1.2.3 BBT968976.1.2.3.0],Conns=[delta wye],kvs=[13.8 0.22],kvas=[75.000000000 75.000000000],Taps=[1,1.000000000],XHL=3.721000000,%loadloss=1.340000000,%noloadloss=0.340000000
new transformer.100493 Phases=3,Windings=2,Buses=[BMT158823902.1.2.3 BBT969347.1.2.3.0],Conns=[delta wye],kvs=[13.8 0.22],kvas=[45.000000000 45.000000000],Taps=[1,1.000000000],XHL=3.636000000,%loadloss=1.522000000,%noloadloss=0.377777778
new transformer.100507 Phases=3,Windings=2,Buses=[BMT151268115.1.2.3 BBT969480.1.2.3.0],Conns=[delta wye],kvs=[13.8 0.22],kvas=[45.000000000 45.000000000],Taps=[1,1.000000000],XHL=3.636000000,%loadloss=1.522000000,%noloadloss=0.377777778
new transformer.100514 Phases=3,Windings=2,Buses=[BMT101958649.1.2.3 BBT969571.1.2.3.0],Conns=[delta wye],kvs=[13.8 0.22],kvas=[45.000000000 45.000000000],Taps=[1,1.000000000],XHL=3.636000000,%loadloss=1.522000000,%noloadloss=0.377777778
new transformer.100521 Phases=1,Windings=3,Buses=[BMT104972331.1 BBT969690.1.0 BBT969690.0.2],Conns=[wye wye wye],kvs=[7.967 0.12 0.12],kvas=[15.000000000 15.000000000 15.000000000],Taps=[1,1.000000000,1.000000000],XHL=2.123000000,XHT=2.123000000,XLT=1.415000000,%loadloss=1.600000000,%noloadloss=0.400000000
new transformer.100934 Phases=1,Windings=3,Buses=[BMT101981434.3 BBT973008.1.0 BBT973008.0.2],Conns=[wye wye wye],kvs=[7.967 0.12 0.12],kvas=[35.000000000 35.000000000 35.000000000],Taps=[1,1.000000000,1.000000000],XHL=2.060000000,XHT=2.060000000,XLT=1.648000000,%loadloss=1.410000000,%noloadloss=0.433000000
new transformer.100948 Phases=1,Windings=3,Buses=[BMT169838889.3 BBT973071.1.0 BBT973071.0.2],Conns=[wye wye wye],kvs=[7.967 0.12 0.12],kvas=[5.000000000 5.000000000 5.000000000],Taps=[1,1.000000000,1.000000000],XHL=1.628000000,XHT=1.628000000,XLT=1.085000000,%loadloss=1.900000000,%noloadloss=0.600000000
new transformer.100955 Phases=3,Windings=2,Buses=[BMT174831139.1.2.3 BBT973085.1.2.3.0],Conns=[delta wye],kvs=[13.8 0.22],kvas=[45.000000000 45.000000000],Taps=[1,1.000000000],XHL=3.636000000,%loadloss=1.522000000,%noloadloss=0.377777778
new transformer.100962 Phases=1,Windings=3,Buses=[BMT174830743.1 BBT973197.1.0 BBT973197.0.2],Conns=[wye wye wye],kvs=[7.967 0.12 0.12],kvas=[35.000000000 35.000000000 35.000000000],Taps=[1,1.000000000,1.000000000],XHL=2.060000000,XHT=2.060000000,XLT=1.648000000,%loadloss=1.410000000,%noloadloss=0.433000000
new transformer.101004 Phases=1,Windings=3,Buses=[BMT101981448.2 BBT973407.1.0 BBT973407.0.2],Conns=[wye wye wye],kvs=[7.967 0.12 0.12],kvas=[5.000000000 5.000000000 5.000000000],Taps=[1,1.000000000,1.000000000],XHL=1.628000000,XHT=1.628000000,XLT=1.085000000,%loadloss=1.900000000,%noloadloss=0.600000000
new transformer.101018 Phases=3,Windings=2,Buses=[BMT101973867.1.2.3 BBT973498.1.2.3.0],Conns=[delta wye],kvs=[13.8 0.22],kvas=[15.000000000 15.000000000],Taps=[1,1.000000000],XHL=3.362000000,%loadloss=1.967000000,%noloadloss=0.500000000
new transformer.101025 Phases=3,Windings=2,Buses=[BMT176194249.1.2.3 BBT973512.1.2.3.0],Conns=[delta wye],kvs=[13.8 0.22],kvas=[45.000000000 45.000000000],Taps=[1,1.000000000],XHL=3.636000000,%loadloss=1.522000000,%noloadloss=0.377777778
new transformer.101032 Phases=1,Windings=3,Buses=[BMT176626408.1 BBT973645.1.0 BBT973645.0.2],Conns=[wye wye wye],kvs=[7.967 0.12 0.12],kvas=[5.000000000 5.000000000 5.000000000],Taps=[1,1.000000000,1.000000000],XHL=1.628000000,XHT=1.628000000,XLT=1.085000000,%loadloss=1.900000000,%noloadloss=0.600000000
new transformer.101046 Phases=3,Windings=2,Buses=[BMT167156351.1.2.3 BBT973708.1.2.3.0],Conns=[delta wye],kvs=[13.8 0.22],kvas=[75.000000000 75.000000000],Taps=[1,1.000000000],XHL=3.721000000,%loadloss=1.340000000,%noloadloss=0.340000000
new transformer.101053 Phases=1,Windings=3,Buses=[BMT174830718.3 BBT973862.1.0 BBT973862.0.2],Conns=[wye wye wye],kvs=[7.967 0.12 0.12],kvas=[35.000000000 35.000000000 35.000000000],Taps=[1,1.000000000,1.000000000],XHL=2.060000000,XHT=2.060000000,XLT=1.648000000,%loadloss=1.410000000,%noloadloss=0.433000000
new transformer.100017 Phases=3,Windings=2,Buses=[BMT101979901.1.2.3 BBT965000.1.2.3.0],Conns=[delta wye],kvs=[13.8 0.22],kvas=[45.000000000 45.000000000],Taps=[1,1.000000000],XHL=3.636000000,%loadloss=1.522000000,%noloadloss=0.377777778
new transformer.100024 Phases=3,Windings=2,Buses=[BMT101982099.1.2.3 BBT965105.1.2.3.0],Conns=[delta wye],kvs=[13.8 0.22],kvas=[45.000000000 45.000000000],Taps=[1,1.000000000],XHL=3.636000000,%loadloss=1.522000000,%noloadloss=0.377777778
new transformer.100031 Phases=1,Windings=3,Buses=[BMT171953755.2 BBT965189.1.0 BBT965189.0.2],Conns=[wye wye wye],kvs=[7.967 0.12 0.12],kvas=[10.000000000 10.000000000 10.000000000],Taps=[1,1.000000000,1.000000000],XHL=1.877000000,XHT=1.877000000,XLT=1.252000000,%loadloss=1.800000000,%noloadloss=0.450000000
new transformer.100038 Phases=3,Windings=2,Buses=[BMT150685736.1.2.3 BBT965203.1.2.3.0],Conns=[delta wye],kvs=[13.8 0.22],kvas=[45.000000000 45.000000000],Taps=[1,1.000000000],XHL=3.636000000,%loadloss=1.522000000,%noloadloss=0.377777778
new transformer.100052 Phases=3,Windings=2,Buses=[BMT174830764.1.2.3 BBT965357.1.2.3.0],Conns=[delta wye],kvs=[13.8 0.22],kvas=[75.000000000 75.000000000],Taps=[1,1.000000000],XHL=3.721000000,%loadloss=1.340000000,%noloadloss=0.340000000
new transformer.100080 Phases=3,Windings=2,Buses=[BMT101982134.1.2.3 BBT965567.1.2.3.0],Conns=[delta wye],kvs=[13.8 0.22],kvas=[45.000000000 45.000000000],Taps=[1,1.000000000],XHL=3.636000000,%loadloss=1.522000000,%noloadloss=0.377777778
new transformer.100094 Phases=3,Windings=2,Buses=[BMT169136226.1.2.3 BBT965784.1.2.3.0],Conns=[delta wye],kvs=[13.8 0.22],kvas=[30.000000000 30.000000000],Taps=[1,1.000000000],XHL=3.564000000,%loadloss=1.667000000,%noloadloss=0.433333333
new transformer.100108 Phases=1,Windings=3,Buses=[BMT176301424.2 BBT965966.1.0 BBT965966.0.2],Conns=[wye wye wye],kvs=[7.967 0.12 0.12],kvas=[35.000000000 35.000000000 35.000000000],Taps=[1,1.000000000,1.000000000],XHL=2.060000000,XHT=2.060000000,XLT=1.648000000,%loadloss=1.410000000,%noloadloss=0.433000000
new transformer.100143 Phases=3,Windings=2,Buses=[BMT137612211.1.2.3 BBT966162.1.2.3.0],Conns=[delta wye],kvs=[13.8 0.22],kvas=[45.000000000 45.000000000],Taps=[1,1.000000000],XHL=3.636000000,%loadloss=1.522000000,%noloadloss=0.377777778
new transformer.100150 Phases=1,Windings=3,Buses=[BMT172707559.1 BBT966253.1.0 BBT966253.0.2],Conns=[wye wye wye],kvs=[7.967 0.12 0.12],kvas=[25.000000000 25.000000000 25.000000000],Taps=[1,1.000000000,1.000000000],XHL=2.344000000,XHT=2.344000000,XLT=1.563000000,%loadloss=1.420000000,%noloadloss=0.320000000
new transformer.100738 Phases=3,Windings=2,Buses=[BMT154841439.1.2.3 BBT971699.1.2.3.0],Conns=[delta wye],kvs=[13.8 0.22],kvas=[45.000000000 45.000000000],Taps=[1,1.000000000],XHL=3.636000000,%loadloss=1.522000000,%noloadloss=0.377777778
new transformer.100745 Phases=1,Windings=3,Buses=[BMT174830719.3 BBT971860.1.0 BBT971860.0.2],Conns=[wye wye wye],kvs=[7.967 0.12 0.12],kvas=[35.000000000 35.000000000 35.000000000],Taps=[1,1.000000000,1.000000000],XHL=2.060000000,XHT=2.060000000,XLT=1.648000000,%loadloss=1.410000000,%noloadloss=0.433000000
new transformer.100752 Phases=1,Windings=3,Buses=[BMT101980944.1 BBT971944.1.0 BBT971944.0.2],Conns=[wye wye wye],kvs=[7.967 0.12 0.12],kvas=[15.000000000 15.000000000 15.000000000],Taps=[1,1.000000000,1.000000000],XHL=2.123000000,XHT=2.123000000,XLT=1.415000000,%loadloss=1.600000000,%noloadloss=0.400000000
new transformer.100787 Phases=3,Windings=2,Buses=[BMT153167152.1.2.3 BBT972063.1.2.3.0],Conns=[delta wye],kvs=[13.8 0.22],kvas=[45.000000000 45.000000000],Taps=[1,1.000000000],XHL=3.636000000,%loadloss=1.522000000,%noloadloss=0.377777778
new transformer.100801 Phases=3,Windings=2,Buses=[BMT174830706.1.2.3 BBT972133.1.2.3.0],Conns=[delta wye],kvs=[13.8 0.22],kvas=[45.000000000 45.000000000],Taps=[1,1.000000000],XHL=3.636000000,%loadloss=1.522000000,%noloadloss=0.377777778
new transformer.100829 Phases=1,Windings=3,Buses=[BMT167947107.1 BBT972350.1.0 BBT972350.0.2],Conns=[wye wye wye],kvs=[7.967 0.12 0.12],kvas=[15.000000000 15.000000000 15.000000000],Taps=[1,1.000000000,1.000000000],XHL=2.123000000,XHT=2.123000000,XLT=1.415000000,%loadloss=1.600000000,%noloadloss=0.400000000
new transformer.100836 Phases=3,Windings=2,Buses=[BMT159297180.1.2.3 BBT972399.1.2.3.0],Conns=[delta wye],kvs=[13.8 0.22],kvas=[75.000000000 75.000000000],Taps=[1,1.000000000],XHL=3.721000000,%loadloss=1.340000000,%noloadloss=0.340000000
new transformer.100878 Phases=1,Windings=3,Buses=[BMT159466340.3 BBT972756.1.0 BBT972756.0.2],Conns=[wye wye wye],kvs=[7.967 0.12 0.12],kvas=[5.000000000 5.000000000 5.000000000],Taps=[1,1.000000000,1.000000000],XHL=1.628000000,XHT=1.628000000,XLT=1.085000000,%loadloss=1.900000000,%noloadloss=0.600000000
new transformer.100885 Phases=1,Windings=3,Buses=[BMT170534429.1 BBT972770.1.0 BBT972770.0.2],Conns=[wye wye wye],kvs=[7.967 0.12 0.12],kvas=[10.000000000 10.000000000 10.000000000],Taps=[1,1.000000000,1.000000000],XHL=1.877000000,XHT=1.877000000,XLT=1.252000000,%loadloss=1.800000000,%noloadloss=0.450000000
new transformer.100892 Phases=1,Windings=3,Buses=[BMT158823904.1 BBT972784.1.0 BBT972784.0.2],Conns=[wye wye wye],kvs=[7.967 0.12 0.12],kvas=[15.000000000 15.000000000 15.000000000],Taps=[1,1.000000000,1.000000000],XHL=2.123000000,XHT=2.123000000,XLT=1.415000000,%loadloss=1.600000000,%noloadloss=0.400000000
new transformer.100899 Phases=3,Windings=2,Buses=[BMT151268557.1.2.3 BBT972840.1.2.3.0],Conns=[delta wye],kvs=[13.8 0.22],kvas=[75.000000000 75.000000000],Taps=[1,1.000000000],XHL=3.721000000,%loadloss=1.340000000,%noloadloss=0.340000000
new transformer.101123 Phases=3,Windings=2,Buses=[BMT174830701.1.2.3 BBT974681.1.2.3.0],Conns=[delta wye],kvs=[13.8 0.22],kvas=[75.000000000 75.000000000],Taps=[1,1.000000000],XHL=3.721000000,%loadloss=1.340000000,%noloadloss=0.340000000
new transformer.101158 Phases=1,Windings=3,Buses=[BMT174830841.2 BBT974891.1.0 BBT974891.0.2],Conns=[wye wye wye],kvs=[7.967 0.12 0.12],kvas=[35.000000000 35.000000000 35.000000000],Taps=[1,1.000000000,1.000000000],XHL=2.060000000,XHT=2.060000000,XLT=1.648000000,%loadloss=1.410000000,%noloadloss=0.433000000
new transformer.101165 Phases=3,Windings=2,Buses=[BMT101958677.1.2.3 BBT974947.1.2.3.0],Conns=[delta wye],kvs=[13.8 0.22],kvas=[75.000000000 75.000000000],Taps=[1,1.000000000],XHL=3.721000000,%loadloss=1.340000000,%noloadloss=0.340000000
new transformer.100577 Phases=1,Windings=3,Buses=[BMT167947101.1 BBT970229.1.0 BBT970229.0.2],Conns=[wye wye wye],kvs=[7.967 0.12 0.12],kvas=[15.000000000 15.000000000 15.000000000],Taps=[1,1.000000000,1.000000000],XHL=2.123000000,XHT=2.123000000,XLT=1.415000000,%loadloss=1.600000000,%noloadloss=0.400000000
new transformer.100584 Phases=1,Windings=3,Buses=[BMT163712310.3 BBT970313.1.0 BBT970313.0.2],Conns=[wye wye wye],kvs=[7.967 0.12 0.12],kvas=[15.000000000 15.000000000 15.000000000],Taps=[1,1.000000000,1.000000000],XHL=2.123000000,XHT=2.123000000,XLT=1.415000000,%loadloss=1.600000000,%noloadloss=0.400000000
new transformer.100591 Phases=1,Windings=3,Buses=[BMT163570580.1 BBT970390.1.0 BBT970390.0.2],Conns=[wye wye wye],kvs=[7.967 0.12 0.12],kvas=[5.000000000 5.000000000 5.000000000],Taps=[1,1.000000000,1.000000000],XHL=1.628000000,XHT=1.628000000,XLT=1.085000000,%loadloss=1.900000000,%noloadloss=0.600000000
new transformer.100598 Phases=1,Windings=3,Buses=[BMT163712313.3 BBT970404.1.0 BBT970404.0.2],Conns=[wye wye wye],kvs=[7.967 0.12 0.12],kvas=[35.000000000 35.000000000 35.000000000],Taps=[1,1.000000000,1.000000000],XHL=2.060000000,XHT=2.060000000,XLT=1.648000000,%loadloss=1.410000000,%noloadloss=0.433000000
new transformer.100612 Phases=1,Windings=3,Buses=[BMT174830596.2 BBT970586.1.0 BBT970586.0.2],Conns=[wye wye wye],kvs=[7.967 0.12 0.12],kvas=[25.000000000 25.000000000 25.000000000],Taps=[1,1.000000000,1.000000000],XHL=2.344000000,XHT=2.344000000,XLT=1.563000000,%loadloss=1.420000000,%noloadloss=0.320000000
new transformer.100619 Phases=3,Windings=2,Buses=[BMT101958215.1.2.3 BBT970600.1.2.3.0],Conns=[delta wye],kvs=[13.8 0.22],kvas=[75.000000000 75.000000000],Taps=[1,1.000000000],XHL=3.721000000,%loadloss=1.340000000,%noloadloss=0.340000000
new transformer.100633 Phases=1,Windings=3,Buses=[BMT174830803.2 BBT970754.1.0 BBT970754.0.2],Conns=[wye wye wye],kvs=[7.967 0.12 0.12],kvas=[25.000000000 25.000000000 25.000000000],Taps=[1,1.000000000,1.000000000],XHL=2.344000000,XHT=2.344000000,XLT=1.563000000,%loadloss=1.420000000,%noloadloss=0.320000000
new transformer.100640 Phases=1,Windings=3,Buses=[BMT104972282.1 BBT970845.1.0 BBT970845.0.2],Conns=[wye wye wye],kvs=[7.967 0.12 0.12],kvas=[10.000000000 10.000000000 10.000000000],Taps=[1,1.000000000,1.000000000],XHL=1.877000000,XHT=1.877000000,XLT=1.252000000,%loadloss=1.800000000,%noloadloss=0.450000000
new transformer.100668 Phases=1,Windings=3,Buses=[BMT170534434.1 BBT971034.1.0 BBT971034.0.2],Conns=[wye wye wye],kvs=[7.967 0.12 0.12],kvas=[5.000000000 5.000000000 5.000000000],Taps=[1,1.000000000,1.000000000],XHL=1.628000000,XHT=1.628000000,XLT=1.085000000,%loadloss=1.900000000,%noloadloss=0.600000000
new transformer.100675 Phases=3,Windings=2,Buses=[BMT158823905.1.2.3 BBT971048.1.2.3.0],Conns=[delta wye],kvs=[13.8 0.22],kvas=[45.000000000 45.000000000],Taps=[1,1.000000000],XHL=3.636000000,%loadloss=1.522000000,%noloadloss=0.377777778
new transformer.100682 Phases=3,Windings=2,Buses=[BMT154841442.1.2.3 BBT971111.1.2.3.0],Conns=[delta wye],kvs=[13.8 0.22],kvas=[75.000000000 75.000000000],Taps=[1,1.000000000],XHL=3.721000000,%loadloss=1.340000000,%noloadloss=0.340000000
new transformer.100689 Phases=3,Windings=2,Buses=[BMT174830746.1.2.3 BBT971188.1.2.3.0],Conns=[delta wye],kvs=[13.8 0.22],kvas=[45.000000000 45.000000000],Taps=[1,1.000000000],XHL=3.636000000,%loadloss=1.522000000,%noloadloss=0.377777778
new transformer.100696 Phases=1,Windings=3,Buses=[BMT101981175.1 BBT971293.1.0 BBT971293.0.2],Conns=[wye wye wye],kvs=[7.967 0.12 0.12],kvas=[35.000000000 35.000000000 35.000000000],Taps=[1,1.000000000,1.000000000],XHL=2.060000000,XHT=2.060000000,XLT=1.648000000,%loadloss=1.410000000,%noloadloss=0.433000000
new transformer.100717 Phases=3,Windings=2,Buses=[BMT101981462.1.2.3 BBT971531.1.2.3.0],Conns=[delta wye],kvs=[13.8 0.22],kvas=[30.000000000 30.000000000],Taps=[1,1.000000000],XHL=3.564000000,%loadloss=1.667000000,%noloadloss=0.433333333
new transformer.100724 Phases=3,Windings=2,Buses=[BMT176679942.1.2.3 BBT971608.1.2.3.0],Conns=[delta wye],kvs=[13.8 0.22],kvas=[45.000000000 45.000000000],Taps=[1,1.000000000],XHL=3.636000000,%loadloss=1.522000000,%noloadloss=0.377777778
new transformer.100731 Phases=3,Windings=2,Buses=[BMT173556420.1.2.3 BBT971622.1.2.3.0],Conns=[delta wye],kvs=[13.8 0.22],kvas=[45.000000000 45.000000000],Taps=[1,1.000000000],XHL=3.636000000,%loadloss=1.522000000,%noloadloss=0.377777778
new transformer.101298 Phases=3,Windings=2,Buses=[BMT174830806.1.2.3 BBT976158.1.2.3.0],Conns=[delta wye],kvs=[13.8 0.22],kvas=[75.000000000 75.000000000],Taps=[1,1.000000000],XHL=3.721000000,%loadloss=1.340000000,%noloadloss=0.340000000
new transformer.101305 Phases=3,Windings=2,Buses=[BMT151668956.1.2.3 BBT976256.1.2.3.0],Conns=[delta wye],kvs=[13.8 0.22],kvas=[75.000000000 75.000000000],Taps=[1,1.000000000],XHL=3.721000000,%loadloss=1.340000000,%noloadloss=0.340000000
new transformer.101319 Phases=1,Windings=3,Buses=[BMT101981987.1 BBT976389.1.0 BBT976389.0.2],Conns=[wye wye wye],kvs=[7.967 0.12 0.12],kvas=[10.000000000 10.000000000 10.000000000],Taps=[1,1.000000000,1.000000000],XHL=1.877000000,XHT=1.877000000,XLT=1.252000000,%loadloss=1.800000000,%noloadloss=0.450000000
new transformer.101333 Phases=1,Windings=3,Buses=[BMT169838888.3 BBT976529.1.0 BBT976529.0.2],Conns=[wye wye wye],kvs=[7.967 0.12 0.12],kvas=[5.000000000 5.000000000 5.000000000],Taps=[1,1.000000000,1.000000000],XHL=1.628000000,XHT=1.628000000,XLT=1.085000000,%loadloss=1.900000000,%noloadloss=0.600000000
new transformer.101354 Phases=3,Windings=2,Buses=[BMT151159966.1.2.3 BBT976655.1.2.3.0],Conns=[delta wye],kvs=[13.8 0.22],kvas=[45.000000000 45.000000000],Taps=[1,1.000000000],XHL=3.636000000,%loadloss=1.522000000,%noloadloss=0.377777778
new transformer.101361 Phases=3,Windings=2,Buses=[BMT151268132.1.2.3 BBT976760.1.2.3.0],Conns=[delta wye],kvs=[13.8 0.22],kvas=[75.000000000 75.000000000],Taps=[1,1.000000000],XHL=3.721000000,%loadloss=1.340000000,%noloadloss=0.340000000
new transformer.101396 Phases=3,Windings=2,Buses=[BMT101979838.1.2.3 BBT976928.1.2.3.0],Conns=[delta wye],kvs=[13.8 0.22],kvas=[45.000000000 45.000000000],Taps=[1,1.000000000],XHL=3.636000000,%loadloss=1.522000000,%noloadloss=0.377777778
new transformer.100178 Phases=1,Windings=3,Buses=[BMT170158410.1 BBT966505.1.0 BBT966505.0.2],Conns=[wye wye wye],kvs=[7.967 0.12 0.12],kvas=[35.000000000 35.000000000 35.000000000],Taps=[1,1.000000000,1.000000000],XHL=2.060000000,XHT=2.060000000,XLT=1.648000000,%loadloss=1.410000000,%noloadloss=0.433000000
new transformer.100185 Phases=3,Windings=2,Buses=[BMT101982148.1.2.3 BBT966575.1.2.3.0],Conns=[delta wye],kvs=[13.8 0.22],kvas=[45.000000000 45.000000000],Taps=[1,1.000000000],XHL=3.636000000,%loadloss=1.522000000,%noloadloss=0.377777778
new transformer.100199 Phases=3,Windings=2,Buses=[BMT169137378.1.2.3 BBT966778.1.2.3.0],Conns=[delta wye],kvs=[13.8 0.22],kvas=[45.000000000 45.000000000],Taps=[1,1.000000000],XHL=3.636000000,%loadloss=1.522000000,%noloadloss=0.377777778
new transformer.100206 Phases=1,Windings=3,Buses=[BMT174831196.1 BBT966911.1.0 BBT966911.0.2],Conns=[wye wye wye],kvs=[7.967 0.12 0.12],kvas=[25.000000000 25.000000000 25.000000000],Taps=[1,1.000000000,1.000000000],XHL=2.344000000,XHT=2.344000000,XLT=1.563000000,%loadloss=1.420000000,%noloadloss=0.320000000
new transformer.100234 Phases=1,Windings=3,Buses=[BMT170158407.1 BBT967044.1.0 BBT967044.0.2],Conns=[wye wye wye],kvs=[7.967 0.12 0.12],kvas=[15.000000000 15.000000000 15.000000000],Taps=[1,1.000000000,1.000000000],XHL=2.123000000,XHT=2.123000000,XLT=1.415000000,%loadloss=1.600000000,%noloadloss=0.400000000
new transformer.100241 Phases=3,Windings=2,Buses=[BMT101982120.1.2.3 BBT967093.1.2.3.0],Conns=[delta wye],kvs=[13.8 0.22],kvas=[75.000000000 75.000000000],Taps=[1,1.000000000],XHL=3.721000000,%loadloss=1.340000000,%noloadloss=0.340000000
new transformer.100248 Phases=1,Windings=3,Buses=[BMT149830278.3 BBT967205.1.0 BBT967205.0.2],Conns=[wye wye wye],kvs=[7.967 0.12 0.12],kvas=[10.000000000 10.000000000 10.000000000],Taps=[1,1.000000000,1.000000000],XHL=1.877000000,XHT=1.877000000,XLT=1.252000000,%loadloss=1.800000000,%noloadloss=0.450000000
new transformer.100255 Phases=3,Windings=2,Buses=[BMT150685739.1.2.3 BBT967219.1.2.3.0],Conns=[delta wye],kvs=[13.8 0.22],kvas=[75.000000000 75.000000000],Taps=[1,1.000000000],XHL=3.721000000,%loadloss=1.340000000,%noloadloss=0.340000000
new transformer.100269 Phases=3,Windings=2,Buses=[BMT175348693.1.2.3 BBT967359.1.2.3.0],Conns=[delta wye],kvs=[13.8 0.22],kvas=[45.000000000 45.000000000],Taps=[1,1.000000000],XHL=3.636000000,%loadloss=1.522000000,%noloadloss=0.377777778
new transformer.100290 Phases=1,Windings=3,Buses=[BMT167947104.1 BBT967443.1.0 BBT967443.0.2],Conns=[wye wye wye],kvs=[7.967 0.12 0.12],kvas=[15.000000000 15.000000000 15.000000000],Taps=[1,1.000000000,1.000000000],XHL=2.123000000,XHT=2.123000000,XLT=1.415000000,%loadloss=1.600000000,%noloadloss=0.400000000
new transformer.100297 Phases=3,Windings=2,Buses=[BMT176679932.1.2.3 BBT967499.1.2.3.0],Conns=[delta wye],kvs=[13.8 0.22],kvas=[15.000000000 15.000000000],Taps=[1,1.000000000],XHL=3.362000000,%loadloss=1.967000000,%noloadloss=0.500000000
new transformer.100304 Phases=1,Windings=3,Buses=[BMT176626407.1 BBT967513.1.0 BBT967513.0.2],Conns=[wye wye wye],kvs=[7.967 0.12 0.12],kvas=[35.000000000 35.000000000 35.000000000],Taps=[1,1.000000000,1.000000000],XHL=2.060000000,XHT=2.060000000,XLT=1.648000000,%loadloss=1.410000000,%noloadloss=0.433000000
new transformer.100311 Phases=1,Windings=3,Buses=[BMT174830607.3 BBT967618.1.0 BBT967618.0.2],Conns=[wye wye wye],kvs=[7.967 0.12 0.12],kvas=[15.000000000 15.000000000 15.000000000],Taps=[1,1.000000000,1.000000000],XHL=2.123000000,XHT=2.123000000,XLT=1.415000000,%loadloss=1.600000000,%noloadloss=0.400000000
new transformer.100318 Phases=3,Windings=2,Buses=[BMT174830734.1.2.3 BBT967667.1.2.3.0],Conns=[delta wye],kvs=[13.8 0.22],kvas=[75.000000000 75.000000000],Taps=[1,1.000000000],XHL=3.721000000,%loadloss=1.340000000,%noloadloss=0.340000000
new transformer.100325 Phases=3,Windings=2,Buses=[BMT175867472.1.2.3 BBT967765.1.2.3.0],Conns=[delta wye],kvs=[13.8 0.22],kvas=[75.000000000 75.000000000],Taps=[1,1.000000000],XHL=3.721000000,%loadloss=1.340000000,%noloadloss=0.340000000
new transformer.101669 Phases=3,Windings=2,Buses=[BMT101958593.1.2.3 BBT979637.1.2.3.0],Conns=[delta wye],kvs=[13.8 0.22],kvas=[75.000000000 75.000000000],Taps=[1,1.000000000],XHL=3.721000000,%loadloss=1.340000000,%noloadloss=0.340000000
new transformer.101683 Phases=3,Windings=2,Buses=[BMT174830616.1.2.3 BBT979819.1.2.3.0],Conns=[delta wye],kvs=[13.8 0.22],kvas=[75.000000000 75.000000000],Taps=[1,1.000000000],XHL=3.721000000,%loadloss=1.340000000,%noloadloss=0.340000000
new transformer.101718 Phases=1,Windings=3,Buses=[BMT169838896.3 BBT979994.1.0 BBT979994.0.2],Conns=[wye wye wye],kvs=[7.967 0.12 0.12],kvas=[25.000000000 25.000000000 25.000000000],Taps=[1,1.000000000,1.000000000],XHL=2.344000000,XHT=2.344000000,XLT=1.563000000,%loadloss=1.420000000,%noloadloss=0.320000000
new transformer.101739 Phases=1,Windings=3,Buses=[BMT138061282.1 BBT980267.1.0 BBT980267.0.2],Conns=[wye wye wye],kvs=[7.967 0.12 0.12],kvas=[15.000000000 15.000000000 15.000000000],Taps=[1,1.000000000,1.000000000],XHL=2.123000000,XHT=2.123000000,XLT=1.415000000,%loadloss=1.600000000,%noloadloss=0.400000000
new transformer.101746 Phases=1,Windings=3,Buses=[BMT162981337.2 BBT980281.1.0 BBT980281.0.2],Conns=[wye wye wye],kvs=[7.967 0.12 0.12],kvas=[5.000000000 5.000000000 5.000000000],Taps=[1,1.000000000,1.000000000],XHL=1.628000000,XHT=1.628000000,XLT=1.085000000,%loadloss=1.900000000,%noloadloss=0.600000000
new transformer.101753 Phases=1,Windings=3,Buses=[BMT101982330.2 BBT980295.1.0 BBT980295.0.2],Conns=[wye wye wye],kvs=[7.967 0.12 0.12],kvas=[15.000000000 15.000000000 15.000000000],Taps=[1,1.000000000,1.000000000],XHL=2.123000000,XHT=2.123000000,XLT=1.415000000,%loadloss=1.600000000,%noloadloss=0.400000000
new transformer.101760 Phases=3,Windings=2,Buses=[BMT174830980.1.2.3 BBT980344.1.2.3.0],Conns=[delta wye],kvs=[13.8 0.22],kvas=[75.000000000 75.000000000],Taps=[1,1.000000000],XHL=3.721000000,%loadloss=1.340000000,%noloadloss=0.340000000
new transformer.101830 Phases=1,Windings=3,Buses=[BMT170540962.3 BBT981051.1.0 BBT981051.0.2],Conns=[wye wye wye],kvs=[7.967 0.12 0.12],kvas=[15.000000000 15.000000000 15.000000000],Taps=[1,1.000000000,1.000000000],XHL=2.123000000,XHT=2.123000000,XLT=1.415000000,%loadloss=1.600000000,%noloadloss=0.400000000
new transformer.101844 Phases=3,Windings=2,Buses=[BMT138061310.1.2.3 BBT981170.1.2.3.0],Conns=[delta wye],kvs=[13.8 0.22],kvas=[75.000000000 75.000000000],Taps=[1,1.000000000],XHL=3.721000000,%loadloss=1.340000000,%noloadloss=0.340000000
new transformer.101060 Phases=1,Windings=3,Buses=[BMT174830726.2 BBT973932.1.0 BBT973932.0.2],Conns=[wye wye wye],kvs=[7.967 0.12 0.12],kvas=[15.000000000 15.000000000 15.000000000],Taps=[1,1.000000000,1.000000000],XHL=2.123000000,XHT=2.123000000,XLT=1.415000000,%loadloss=1.600000000,%noloadloss=0.400000000
new transformer.101067 Phases=3,Windings=2,Buses=[BMT175842771.1.2.3 BBT974002.1.2.3.0],Conns=[delta wye],kvs=[13.8 0.22],kvas=[45.000000000 45.000000000],Taps=[1,1.000000000],XHL=3.636000000,%loadloss=1.522000000,%noloadloss=0.377777778
new transformer.101074 Phases=3,Windings=2,Buses=[BMT175867465.1.2.3 BBT974100.1.2.3.0],Conns=[delta wye],kvs=[13.8 0.22],kvas=[75.000000000 75.000000000],Taps=[1,1.000000000],XHL=3.721000000,%loadloss=1.340000000,%noloadloss=0.340000000
new transformer.101095 Phases=3,Windings=2,Buses=[BMT170541388.1.2.3 BBT974275.1.2.3.0],Conns=[delta wye],kvs=[13.8 0.22],kvas=[45.000000000 45.000000000],Taps=[1,1.000000000],XHL=3.636000000,%loadloss=1.522000000,%noloadloss=0.377777778
new transformer.101102 Phases=1,Windings=3,Buses=[BMT174830840.2 BBT974373.1.0 BBT974373.0.2],Conns=[wye wye wye],kvs=[7.967 0.12 0.12],kvas=[35.000000000 35.000000000 35.000000000],Taps=[1,1.000000000,1.000000000],XHL=2.060000000,XHT=2.060000000,XLT=1.648000000,%loadloss=1.410000000,%noloadloss=0.433000000
new transformer.101109 Phases=3,Windings=2,Buses=[BMT158766154.1.2.3 BBT974457.1.2.3.0],Conns=[delta wye],kvs=[13.8 0.22],kvas=[75.000000000 75.000000000],Taps=[1,1.000000000],XHL=3.721000000,%loadloss=1.340000000,%noloadloss=0.340000000
new transformer.101494 Phases=1,Windings=3,Buses=[BMT158823900.2 BBT977894.1.0 BBT977894.0.2],Conns=[wye wye wye],kvs=[7.967 0.12 0.12],kvas=[15.000000000 15.000000000 15.000000000],Taps=[1,1.000000000,1.000000000],XHL=2.123000000,XHT=2.123000000,XLT=1.415000000,%loadloss=1.600000000,%noloadloss=0.400000000
new transformer.101501 Phases=1,Windings=3,Buses=[BMT101958061.3 BBT977985.1.0 BBT977985.0.2],Conns=[wye wye wye],kvs=[7.967 0.12 0.12],kvas=[35.000000000 35.000000000 35.000000000],Taps=[1,1.000000000,1.000000000],XHL=2.060000000,XHT=2.060000000,XLT=1.648000000,%loadloss=1.410000000,%noloadloss=0.433000000
new transformer.101508 Phases=3,Windings=2,Buses=[BMT167156348.1.2.3 BBT978062.1.2.3.0],Conns=[delta wye],kvs=[13.8 0.22],kvas=[75.000000000 75.000000000],Taps=[1,1.000000000],XHL=3.721000000,%loadloss=1.340000000,%noloadloss=0.340000000
new transformer.101522 Phases=1,Windings=3,Buses=[BMT174830724.2 BBT978321.1.0 BBT978321.0.2],Conns=[wye wye wye],kvs=[7.967 0.12 0.12],kvas=[15.000000000 15.000000000 15.000000000],Taps=[1,1.000000000,1.000000000],XHL=2.123000000,XHT=2.123000000,XLT=1.415000000,%loadloss=1.600000000,%noloadloss=0.400000000
new transformer.101529 Phases=3,Windings=2,Buses=[BMT175842764.1.2.3 BBT978398.1.2.3.0],Conns=[delta wye],kvs=[13.8 0.22],kvas=[45.000000000 45.000000000],Taps=[1,1.000000000],XHL=3.636000000,%loadloss=1.522000000,%noloadloss=0.377777778
new transformer.101571 Phases=1,Windings=3,Buses=[BMT163570572.1 BBT978734.1.0 BBT978734.0.2],Conns=[wye wye wye],kvs=[7.967 0.12 0.12],kvas=[10.000000000 10.000000000 10.000000000],Taps=[1,1.000000000,1.000000000],XHL=1.877000000,XHT=1.877000000,XLT=1.252000000,%loadloss=1.800000000,%noloadloss=0.450000000
new transformer.101578 Phases=1,Windings=3,Buses=[BMT101976366.2 BBT978748.1.0 BBT978748.0.2],Conns=[wye wye wye],kvs=[7.967 0.12 0.12],kvas=[15.000000000 15.000000000 15.000000000],Taps=[1,1.000000000,1.000000000],XHL=2.123000000,XHT=2.123000000,XLT=1.415000000,%loadloss=1.600000000,%noloadloss=0.400000000
new transformer.101599 Phases=1,Windings=3,Buses=[BMT101979516.1 BBT978888.1.0 BBT978888.0.2],Conns=[wye wye wye],kvs=[7.967 0.12 0.12],kvas=[15.000000000 15.000000000 15.000000000],Taps=[1,1.000000000,1.000000000],XHL=2.123000000,XHT=2.123000000,XLT=1.415000000,%loadloss=1.600000000,%noloadloss=0.400000000
new transformer.101606 Phases=1,Windings=3,Buses=[BMT151268589.3 BBT978979.1.0 BBT978979.0.2],Conns=[wye wye wye],kvs=[7.967 0.12 0.12],kvas=[35.000000000 35.000000000 35.000000000],Taps=[1,1.000000000,1.000000000],XHL=2.060000000,XHT=2.060000000,XLT=1.648000000,%loadloss=1.410000000,%noloadloss=0.433000000
new transformer.101620 Phases=1,Windings=3,Buses=[BMT174830742.1 BBT979119.1.0 BBT979119.0.2],Conns=[wye wye wye],kvs=[7.967 0.12 0.12],kvas=[35.000000000 35.000000000 35.000000000],Taps=[1,1.000000000,1.000000000],XHL=2.060000000,XHT=2.060000000,XLT=1.648000000,%loadloss=1.410000000,%noloadloss=0.433000000
new transformer.101627 Phases=3,Windings=2,Buses=[BMT174830792.1.2.3 BBT979175.1.2.3.0],Conns=[delta wye],kvs=[13.8 0.22],kvas=[75.000000000 75.000000000],Taps=[1,1.000000000],XHL=3.721000000,%loadloss=1.340000000,%noloadloss=0.340000000
new transformer.101634 Phases=1,Windings=3,Buses=[BMT101980937.1 BBT979280.1.0 BBT979280.0.2],Conns=[wye wye wye],kvs=[7.967 0.12 0.12],kvas=[35.000000000 35.000000000 35.000000000],Taps=[1,1.000000000,1.000000000],XHL=2.060000000,XHT=2.060000000,XLT=1.648000000,%loadloss=1.410000000,%noloadloss=0.433000000
new transformer.101655 Phases=3,Windings=2,Buses=[BMT153167153.1.2.3 BBT979462.1.2.3.0],Conns=[delta wye],kvs=[13.8 0.22],kvas=[15.000000000 15.000000000],Taps=[1,1.000000000],XHL=3.362000000,%loadloss=1.967000000,%noloadloss=0.500000000
new transformer.102229 Phases=3,Windings=2,Buses=[BMT101959160.1.2.3 BBT985503.1.2.3.0],Conns=[delta wye],kvs=[13.8 0.22],kvas=[45.000000000 45.000000000],Taps=[1,1.000000000],XHL=3.636000000,%loadloss=1.522000000,%noloadloss=0.377777778
new transformer.102236 Phases=3,Windings=2,Buses=[BMT150685004.1.2.3 BBT985608.1.2.3.0],Conns=[delta wye],kvs=[13.8 0.22],kvas=[75.000000000 75.000000000],Taps=[1,1.000000000],XHL=3.721000000,%loadloss=1.340000000,%noloadloss=0.340000000
new transformer.102243 Phases=3,Windings=2,Buses=[BMT176171081.1.2.3 BBT985734.1.2.3.0],Conns=[delta wye],kvs=[13.8 0.22],kvas=[30.000000000 30.000000000],Taps=[1,1.000000000],XHL=3.564000000,%loadloss=1.667000000,%noloadloss=0.433333333
new transformer.102250 Phases=3,Windings=2,Buses=[BMT151159965.1.2.3 BBT985748.1.2.3.0],Conns=[delta wye],kvs=[13.8 0.22],kvas=[45.000000000 45.000000000],Taps=[1,1.000000000],XHL=3.636000000,%loadloss=1.522000000,%noloadloss=0.377777778
new transformer.101179 Phases=3,Windings=2,Buses=[BMT174830695.1.2.3 BBT975080.1.2.3.0],Conns=[delta wye],kvs=[13.8 0.22],kvas=[75.000000000 75.000000000],Taps=[1,1.000000000],XHL=3.721000000,%loadloss=1.340000000,%noloadloss=0.340000000
new transformer.101221 Phases=1,Windings=3,Buses=[BMT174830776.2 BBT975507.1.0 BBT975507.0.2],Conns=[wye wye wye],kvs=[7.967 0.12 0.12],kvas=[25.000000000 25.000000000 25.000000000],Taps=[1,1.000000000,1.000000000],XHL=2.344000000,XHT=2.344000000,XLT=1.563000000,%loadloss=1.420000000,%noloadloss=0.320000000
new transformer.101235 Phases=1,Windings=3,Buses=[BMT170158414.1 BBT975612.1.0 BBT975612.0.2],Conns=[wye wye wye],kvs=[7.967 0.12 0.12],kvas=[35.000000000 35.000000000 35.000000000],Taps=[1,1.000000000,1.000000000],XHL=2.060000000,XHT=2.060000000,XLT=1.648000000,%loadloss=1.410000000,%noloadloss=0.433000000
new transformer.101249 Phases=3,Windings=2,Buses=[BMT174830807.1.2.3 BBT975745.1.2.3.0],Conns=[delta wye],kvs=[13.8 0.22],kvas=[45.000000000 45.000000000],Taps=[1,1.000000000],XHL=3.636000000,%loadloss=1.522000000,%noloadloss=0.377777778
new transformer.101256 Phases=3,Windings=2,Buses=[BMT151159967.1.2.3 BBT975843.1.2.3.0],Conns=[delta wye],kvs=[13.8 0.22],kvas=[45.000000000 45.000000000],Taps=[1,1.000000000],XHL=3.636000000,%loadloss=1.522000000,%noloadloss=0.377777778
new transformer.101263 Phases=1,Windings=3,Buses=[BMT174830594.2 BBT975920.1.0 BBT975920.0.2],Conns=[wye wye wye],kvs=[7.967 0.12 0.12],kvas=[10.000000000 10.000000000 10.000000000],Taps=[1,1.000000000,1.000000000],XHL=1.877000000,XHT=1.877000000,XLT=1.252000000,%loadloss=1.800000000,%noloadloss=0.450000000
new transformer.101284 Phases=3,Windings=2,Buses=[BMT155651098.1.2.3 BBT976067.1.2.3.0],Conns=[delta wye],kvs=[13.8 0.22],kvas=[45.000000000 45.000000000],Taps=[1,1.000000000],XHL=3.636000000,%loadloss=1.522000000,%noloadloss=0.377777778
new transformer.101851 Phases=1,Windings=3,Buses=[BMT101981329.2 BBT981184.1.0 BBT981184.0.2],Conns=[wye wye wye],kvs=[7.967 0.12 0.12],kvas=[15.000000000 15.000000000 15.000000000],Taps=[1,1.000000000,1.000000000],XHL=2.123000000,XHT=2.123000000,XLT=1.415000000,%loadloss=1.600000000,%noloadloss=0.400000000
new transformer.101858 Phases=1,Windings=3,Buses=[BMT176634089.2 BBT981261.1.0 BBT981261.0.2],Conns=[wye wye wye],kvs=[7.967 0.12 0.12],kvas=[5.000000000 5.000000000 5.000000000],Taps=[1,1.000000000,1.000000000],XHL=1.628000000,XHT=1.628000000,XLT=1.085000000,%loadloss=1.900000000,%noloadloss=0.600000000
new transformer.101865 Phases=3,Windings=2,Buses=[BMT174831155.1.2.3 BBT981296.1.2.3.0],Conns=[delta wye],kvs=[13.8 0.22],kvas=[45.000000000 45.000000000],Taps=[1,1.000000000],XHL=3.636000000,%loadloss=1.522000000,%noloadloss=0.377777778
new transformer.101879 Phases=1,Windings=3,Buses=[BMT174830711.3 BBT981429.1.0 BBT981429.0.2],Conns=[wye wye wye],kvs=[7.967 0.12 0.12],kvas=[35.000000000 35.000000000 35.000000000],Taps=[1,1.000000000,1.000000000],XHL=2.060000000,XHT=2.060000000,XLT=1.648000000,%loadloss=1.410000000,%noloadloss=0.433000000
new transformer.101893 Phases=1,Windings=3,Buses=[BMT101981070.1 BBT981555.1.0 BBT981555.0.2],Conns=[wye wye wye],kvs=[7.967 0.12 0.12],kvas=[25.000000000 25.000000000 25.000000000],Taps=[1,1.000000000,1.000000000],XHL=2.344000000,XHT=2.344000000,XLT=1.563000000,%loadloss=1.420000000,%noloadloss=0.320000000
new transformer.101914 Phases=1,Windings=3,Buses=[BMT167026603.2 BBT981709.1.0 BBT981709.0.2],Conns=[wye wye wye],kvs=[7.967 0.12 0.12],kvas=[35.000000000 35.000000000 35.000000000],Taps=[1,1.000000000,1.000000000],XHL=2.060000000,XHT=2.060000000,XLT=1.648000000,%loadloss=1.410000000,%noloadloss=0.433000000
new transformer.101928 Phases=1,Windings=3,Buses=[BMT149830283.3 BBT981961.1.0 BBT981961.0.2],Conns=[wye wye wye],kvs=[7.967 0.12 0.12],kvas=[5.000000000 5.000000000 5.000000000],Taps=[1,1.000000000,1.000000000],XHL=1.628000000,XHT=1.628000000,XLT=1.085000000,%loadloss=1.900000000,%noloadloss=0.600000000
new transformer.101935 Phases=3,Windings=2,Buses=[BMT150793364.1.2.3 BBT981975.1.2.3.0],Conns=[delta wye],kvs=[13.8 0.22],kvas=[75.000000000 75.000000000],Taps=[1,1.000000000],XHL=3.721000000,%loadloss=1.340000000,%noloadloss=0.340000000
new transformer.101963 Phases=1,Windings=3,Buses=[BMT163712309.3 BBT982185.1.0 BBT982185.0.2],Conns=[wye wye wye],kvs=[7.967 0.12 0.12],kvas=[15.000000000 15.000000000 15.000000000],Taps=[1,1.000000000,1.000000000],XHL=2.123000000,XHT=2.123000000,XLT=1.415000000,%loadloss=1.600000000,%noloadloss=0.400000000
new transformer.101977 Phases=1,Windings=3,Buses=[BMT101981077.1 BBT982395.1.0 BBT982395.0.2],Conns=[wye wye wye],kvs=[7.967 0.12 0.12],kvas=[10.000000000 10.000000000 10.000000000],Taps=[1,1.000000000,1.000000000],XHL=1.877000000,XHT=1.877000000,XLT=1.252000000,%loadloss=1.800000000,%noloadloss=0.450000000
new transformer.101984 Phases=3,Windings=2,Buses=[BMT173211802.1.2.3 BBT982423.1.2.3.0],Conns=[delta wye],kvs=[13.8 0.22],kvas=[30.000000000 30.000000000],Taps=[1,1.000000000],XHL=3.564000000,%loadloss=1.667000000,%noloadloss=0.433333333
new transformer.101998 Phases=3,Windings=2,Buses=[BMT101959111.1.2.3 BBT982612.1.2.3.0],Conns=[delta wye],kvs=[13.8 0.22],kvas=[75.000000000 75.000000000],Taps=[1,1.000000000],XHL=3.721000000,%loadloss=1.340000000,%noloadloss=0.340000000
new transformer.102005 Phases=3,Windings=2,Buses=[BMT169274006.1.2.3 BBT982640.1.2.3.0],Conns=[delta wye],kvs=[13.8 0.22],kvas=[100.000000000 100.000000000],Taps=[1,1.000000000],XHL=3.770000000,%loadloss=1.330000000,%noloadloss=0.390000000
new transformer.102012 Phases=3,Windings=2,Buses=[BMT101961365.1.2.3 BBT982654.1.2.3.0],Conns=[delta wye],kvs=[13.8 0.22],kvas=[45.000000000 45.000000000],Taps=[1,1.000000000],XHL=3.636000000,%loadloss=1.522000000,%noloadloss=0.377777778
new transformer.102019 Phases=3,Windings=2,Buses=[BMT163749023.1.2.3 BBT982780.1.2.3.0],Conns=[delta wye],kvs=[13.8 0.22],kvas=[75.000000000 75.000000000],Taps=[1,1.000000000],XHL=3.721000000,%loadloss=1.340000000,%noloadloss=0.340000000
new transformer.101410 Phases=3,Windings=2,Buses=[BMT151668957.1.2.3 BBT977054.1.2.3.0],Conns=[delta wye],kvs=[13.8 0.22],kvas=[30.000000000 30.000000000],Taps=[1,1.000000000],XHL=3.564000000,%loadloss=1.667000000,%noloadloss=0.433333333
new transformer.101417 Phases=3,Windings=2,Buses=[BMT154841444.1.2.3 BBT977152.1.2.3.0],Conns=[delta wye],kvs=[13.8 0.22],kvas=[45.000000000 45.000000000],Taps=[1,1.000000000],XHL=3.636000000,%loadloss=1.522000000,%noloadloss=0.377777778
new transformer.101424 Phases=3,Windings=2,Buses=[BMT174830747.1.2.3 BBT977208.1.2.3.0],Conns=[delta wye],kvs=[13.8 0.22],kvas=[45.000000000 45.000000000],Taps=[1,1.000000000],XHL=3.636000000,%loadloss=1.522000000,%noloadloss=0.377777778
new transformer.102040 Phases=3,Windings=2,Buses=[BMT101986663.1.2.3 BBT983074.1.2.3.0],Conns=[delta wye],kvs=[13.8 0.22],kvas=[75.000000000 75.000000000],Taps=[1,1.000000000],XHL=3.721000000,%loadloss=1.340000000,%noloadloss=0.340000000
new transformer.102047 Phases=1,Windings=3,Buses=[BMT174831218.1 BBT983151.1.0 BBT983151.0.2],Conns=[wye wye wye],kvs=[7.967 0.12 0.12],kvas=[35.000000000 35.000000000 35.000000000],Taps=[1,1.000000000,1.000000000],XHL=2.060000000,XHT=2.060000000,XLT=1.648000000,%loadloss=1.410000000,%noloadloss=0.433000000
new transformer.102054 Phases=3,Windings=2,Buses=[BMT101986677.1.2.3 BBT983228.1.2.3.0],Conns=[delta wye],kvs=[13.8 0.22],kvas=[45.000000000 45.000000000],Taps=[1,1.000000000],XHL=3.636000000,%loadloss=1.522000000,%noloadloss=0.377777778
new transformer.102068 Phases=3,Windings=2,Buses=[BMT101958600.1.2.3 BBT983340.1.2.3.0],Conns=[delta wye],kvs=[13.8 0.22],kvas=[15.000000000 15.000000000],Taps=[1,1.000000000],XHL=3.362000000,%loadloss=1.967000000,%noloadloss=0.500000000
new transformer.102075 Phases=3,Windings=2,Buses=[BMT166799705.1.2.3 BBT983396.1.2.3.0],Conns=[delta wye],kvs=[13.8 0.22],kvas=[45.000000000 45.000000000],Taps=[1,1.000000000],XHL=3.636000000,%loadloss=1.522000000,%noloadloss=0.377777778
new transformer.102089 Phases=3,Windings=2,Buses=[BMT101960616.1.2.3 BBT983487.1.2.3.0],Conns=[delta wye],kvs=[13.8 0.22],kvas=[150.000000000 150.000000000],Taps=[1,1.000000000],XHL=3.805000000,%loadloss=1.127000000,%noloadloss=0.280000000
new transformer.102096 Phases=1,Windings=3,Buses=[BMT174831217.1 BBT983578.1.0 BBT983578.0.2],Conns=[wye wye wye],kvs=[7.967 0.12 0.12],kvas=[15.000000000 15.000000000 15.000000000],Taps=[1,1.000000000,1.000000000],XHL=2.123000000,XHT=2.123000000,XLT=1.415000000,%loadloss=1.600000000,%noloadloss=0.400000000
new transformer.102103 Phases=3,Windings=2,Buses=[BMT150685009.1.2.3 BBT983648.1.2.3.0],Conns=[delta wye],kvs=[13.8 0.22],kvas=[75.000000000 75.000000000],Taps=[1,1.000000000],XHL=3.721000000,%loadloss=1.340000000,%noloadloss=0.340000000
new transformer.102110 Phases=3,Windings=2,Buses=[BMT167679221.1.2.3 BBT983830.1.2.3.0],Conns=[delta wye],kvs=[13.8 0.22],kvas=[100.000000000 100.000000000],Taps=[1,1.000000000],XHL=3.770000000,%loadloss=1.330000000,%noloadloss=0.390000000
new transformer.102117 Phases=3,Windings=2,Buses=[BMT169267442.1.2.3 BBT983928.1.2.3.0],Conns=[delta wye],kvs=[13.8 0.22],kvas=[150.000000000 150.000000000],Taps=[1,1.000000000],XHL=3.805000000,%loadloss=1.127000000,%noloadloss=0.280000000
new transformer.102124 Phases=1,Windings=3,Buses=[BMT101961372.2 BBT984026.1.0 BBT984026.0.2],Conns=[wye wye wye],kvs=[7.967 0.12 0.12],kvas=[35.000000000 35.000000000 35.000000000],Taps=[1,1.000000000,1.000000000],XHL=2.060000000,XHT=2.060000000,XLT=1.648000000,%loadloss=1.410000000,%noloadloss=0.433000000
new transformer.102131 Phases=1,Windings=3,Buses=[BMT174831007.1 BBT984152.1.0 BBT984152.0.2],Conns=[wye wye wye],kvs=[7.967 0.12 0.12],kvas=[15.000000000 15.000000000 15.000000000],Taps=[1,1.000000000,1.000000000],XHL=2.123000000,XHT=2.123000000,XLT=1.415000000,%loadloss=1.600000000,%noloadloss=0.400000000
new transformer.102138 Phases=3,Windings=2,Buses=[BMT101959174.1.2.3 BBT984166.1.2.3.0],Conns=[delta wye],kvs=[13.8 0.22],kvas=[75.000000000 75.000000000],Taps=[1,1.000000000],XHL=3.721000000,%loadloss=1.340000000,%noloadloss=0.340000000
new transformer.102152 Phases=3,Windings=2,Buses=[BMT101961113.1.2.3 BBT984299.1.2.3.0],Conns=[delta wye],kvs=[13.8 0.22],kvas=[150.000000000 150.000000000],Taps=[1,1.000000000],XHL=3.805000000,%loadloss=1.127000000,%noloadloss=0.280000000
new transformer.102159 Phases=3,Windings=2,Buses=[BMT159684517.1.2.3 BBT984390.1.2.3.0],Conns=[delta wye],kvs=[13.8 0.22],kvas=[45.000000000 45.000000000],Taps=[1,1.000000000],XHL=3.636000000,%loadloss=1.522000000,%noloadloss=0.377777778
new transformer.102166 Phases=3,Windings=2,Buses=[BMT169273997.1.2.3 BBT984523.1.2.3.0],Conns=[delta wye],kvs=[13.8 0.22],kvas=[75.000000000 75.000000000],Taps=[1,1.000000000],XHL=3.721000000,%loadloss=1.340000000,%noloadloss=0.340000000
new transformer.102173 Phases=3,Windings=2,Buses=[BMT101959132.1.2.3 BBT984670.1.2.3.0],Conns=[delta wye],kvs=[13.8 0.22],kvas=[45.000000000 45.000000000],Taps=[1,1.000000000],XHL=3.636000000,%loadloss=1.522000000,%noloadloss=0.377777778
new transformer.102180 Phases=3,Windings=2,Buses=[BMT101961386.1.2.3 BBT984817.1.2.3.0],Conns=[delta wye],kvs=[13.8 0.22],kvas=[45.000000000 45.000000000],Taps=[1,1.000000000],XHL=3.636000000,%loadloss=1.522000000,%noloadloss=0.377777778
new transformer.102257 Phases=3,Windings=2,Buses=[BMT101988581.1.2.3 BBT985790.1.2.3.0],Conns=[delta wye],kvs=[13.8 0.22],kvas=[45.000000000 45.000000000],Taps=[1,1.000000000],XHL=3.636000000,%loadloss=1.522000000,%noloadloss=0.377777778
new transformer.102264 Phases=3,Windings=2,Buses=[BMT128549073.1.2.3 BBT985804.1.2.3.0],Conns=[delta wye],kvs=[13.8 0.22],kvas=[45.000000000 45.000000000],Taps=[1,1.000000000],XHL=3.636000000,%loadloss=1.522000000,%noloadloss=0.377777778
new transformer.102271 Phases=3,Windings=2,Buses=[BMT150685006.1.2.3 BBT985916.1.2.3.0],Conns=[delta wye],kvs=[13.8 0.22],kvas=[30.000000000 30.000000000],Taps=[1,1.000000000],XHL=3.564000000,%loadloss=1.667000000,%noloadloss=0.433333333
new transformer.102278 Phases=3,Windings=2,Buses=[BMT150793367.1.2.3 BBT985923.1.2.3.0],Conns=[delta wye],kvs=[13.8 0.22],kvas=[30.000000000 30.000000000],Taps=[1,1.000000000],XHL=3.564000000,%loadloss=1.667000000,%noloadloss=0.433333333
new transformer.102285 Phases=3,Windings=2,Buses=[BMT101960560.1.2.3 BBT985986.1.2.3.0],Conns=[delta wye],kvs=[13.8 0.22],kvas=[150.000000000 150.000000000],Taps=[1,1.000000000],XHL=3.805000000,%loadloss=1.127000000,%noloadloss=0.280000000
new transformer.102292 Phases=3,Windings=2,Buses=[BMT101958607.1.2.3 BBT986056.1.2.3.0],Conns=[delta wye],kvs=[13.8 0.22],kvas=[30.000000000 30.000000000],Taps=[1,1.000000000],XHL=3.564000000,%loadloss=1.667000000,%noloadloss=0.433333333
new transformer.102306 Phases=3,Windings=2,Buses=[BMT151159962.1.2.3 BBT986175.1.2.3.0],Conns=[delta wye],kvs=[13.8 0.22],kvas=[45.000000000 45.000000000],Taps=[1,1.000000000],XHL=3.636000000,%loadloss=1.522000000,%noloadloss=0.377777778
new transformer.102313 Phases=3,Windings=2,Buses=[BMT128549094.1.2.3 BBT986273.1.2.3.0],Conns=[delta wye],kvs=[13.8 0.22],kvas=[45.000000000 45.000000000],Taps=[1,1.000000000],XHL=3.636000000,%loadloss=1.522000000,%noloadloss=0.377777778
new transformer.102320 Phases=3,Windings=2,Buses=[BMT151159963.1.2.3 BBT986350.1.2.3.0],Conns=[delta wye],kvs=[13.8 0.22],kvas=[30.000000000 30.000000000],Taps=[1,1.000000000],XHL=3.564000000,%loadloss=1.667000000,%noloadloss=0.433333333
new transformer.102327 Phases=1,Windings=3,Buses=[BMT174831004.1 BBT986420.1.0 BBT986420.0.2],Conns=[wye wye wye],kvs=[7.967 0.12 0.12],kvas=[5.000000000 5.000000000 5.000000000],Taps=[1,1.000000000,1.000000000],XHL=1.628000000,XHT=1.628000000,XLT=1.085000000,%loadloss=1.900000000,%noloadloss=0.600000000
new transformer.102334 Phases=3,Windings=2,Buses=[BMT173211803.1.2.3 BBT986434.1.2.3.0],Conns=[delta wye],kvs=[13.8 0.22],kvas=[45.000000000 45.000000000],Taps=[1,1.000000000],XHL=3.636000000,%loadloss=1.522000000,%noloadloss=0.377777778
new transformer.102341 Phases=1,Windings=3,Buses=[BMT150685011.2 BBT986553.1.0 BBT986553.0.2],Conns=[wye wye wye],kvs=[7.967 0.12 0.12],kvas=[15.000000000 15.000000000 15.000000000],Taps=[1,1.000000000,1.000000000],XHL=2.123000000,XHT=2.123000000,XLT=1.415000000,%loadloss=1.600000000,%noloadloss=0.400000000
new transformer.102348 Phases=1,Windings=3,Buses=[BMT174831005.1 BBT986588.1.0 BBT986588.0.2],Conns=[wye wye wye],kvs=[7.967 0.12 0.12],kvas=[15.000000000 15.000000000 15.000000000],Taps=[1,1.000000000,1.000000000],XHL=2.123000000,XHT=2.123000000,XLT=1.415000000,%loadloss=1.600000000,%noloadloss=0.400000000
new transformer.102355 Phases=3,Windings=2,Buses=[BMT169267441.1.2.3 BBT986602.1.2.3.0],Conns=[delta wye],kvs=[13.8 0.22],kvas=[75.000000000 75.000000000],Taps=[1,1.000000000],XHL=3.721000000,%loadloss=1.340000000,%noloadloss=0.340000000
new transformer.102362 Phases=3,Windings=2,Buses=[BMT163941698.1.2.3 BBT986686.1.2.3.0],Conns=[delta wye],kvs=[13.8 0.22],kvas=[100.000000000 100.000000000],Taps=[1,1.000000000],XHL=3.770000000,%loadloss=1.330000000,%noloadloss=0.390000000
new transformer.102369 Phases=1,Windings=3,Buses=[BMT174831227.2 BBT986840.1.0 BBT986840.0.2],Conns=[wye wye wye],kvs=[7.967 0.12 0.12],kvas=[15.000000000 15.000000000 15.000000000],Taps=[1,1.000000000,1.000000000],XHL=2.123000000,XHT=2.123000000,XLT=1.415000000,%loadloss=1.600000000,%noloadloss=0.400000000
new transformer.102376 Phases=3,Windings=2,Buses=[BMT163941700.1.2.3 BBT986924.1.2.3.0],Conns=[delta wye],kvs=[13.8 0.22],kvas=[75.000000000 75.000000000],Taps=[1,1.000000000],XHL=3.721000000,%loadloss=1.340000000,%noloadloss=0.340000000
new transformer.102383 Phases=3,Windings=2,Buses=[BMT101988630.1.2.3 BBT986966.1.2.3.0],Conns=[delta wye],kvs=[13.8 0.22],kvas=[75.000000000 75.000000000],Taps=[1,1.000000000],XHL=3.721000000,%loadloss=1.340000000,%noloadloss=0.340000000
new transformer.102390 Phases=3,Windings=2,Buses=[BMT128549052.1.2.3 BBT987022.1.2.3.0],Conns=[delta wye],kvs=[13.8 0.22],kvas=[75.000000000 75.000000000],Taps=[1,1.000000000],XHL=3.721000000,%loadloss=1.340000000,%noloadloss=0.340000000
new transformer.102397 Phases=3,Windings=2,Buses=[BMT136413062.1.2.3 BBT987148.1.2.3.0],Conns=[delta wye],kvs=[13.8 0.22],kvas=[15.000000000 15.000000000],Taps=[1,1.000000000],XHL=3.362000000,%loadloss=1.967000000,%noloadloss=0.500000000
new transformer.102404 Phases=1,Windings=3,Buses=[BMT176326149.2 BBT987218.1.0 BBT987218.0.2],Conns=[wye wye wye],kvs=[7.967 0.12 0.12],kvas=[15.000000000 15.000000000 15.000000000],Taps=[1,1.000000000,1.000000000],XHL=2.123000000,XHT=2.123000000,XLT=1.415000000,%loadloss=1.600000000,%noloadloss=0.400000000
new transformer.102600 Phases=3,Windings=2,Buses=[BMT107476574.1.2.3 BBT989472.1.2.3.0],Conns=[delta wye],kvs=[13.8 0.22],kvas=[45.000000000 45.000000000],Taps=[1,1.000000000],XHL=3.636000000,%loadloss=1.522000000,%noloadloss=0.377777778
new transformer.102418 Phases=3,Windings=2,Buses=[BMT107476588.1.2.3 BBT987484.1.2.3.0],Conns=[delta wye],kvs=[13.8 0.22],kvas=[30.000000000 30.000000000],Taps=[1,1.000000000],XHL=3.564000000,%loadloss=1.667000000,%noloadloss=0.433333333
new transformer.102425 Phases=3,Windings=2,Buses=[BMT151159957.1.2.3 BBT987582.1.2.3.0],Conns=[delta wye],kvs=[13.8 0.22],kvas=[75.000000000 75.000000000],Taps=[1,1.000000000],XHL=3.721000000,%loadloss=1.340000000,%noloadloss=0.340000000
new transformer.102432 Phases=3,Windings=2,Buses=[BMT150844052.1.2.3 BBT987687.1.2.3.0],Conns=[delta wye],kvs=[13.8 0.22],kvas=[45.000000000 45.000000000],Taps=[1,1.000000000],XHL=3.636000000,%loadloss=1.522000000,%noloadloss=0.377777778
new transformer.102439 Phases=3,Windings=2,Buses=[BMT128549038.1.2.3 BBT987729.1.2.3.0],Conns=[delta wye],kvs=[13.8 0.22],kvas=[75.000000000 75.000000000],Taps=[1,1.000000000],XHL=3.721000000,%loadloss=1.340000000,%noloadloss=0.340000000
new transformer.102446 Phases=3,Windings=2,Buses=[BMT169267439.1.2.3 BBT987827.1.2.3.0],Conns=[delta wye],kvs=[13.8 0.22],kvas=[75.000000000 75.000000000],Taps=[1,1.000000000],XHL=3.721000000,%loadloss=1.340000000,%noloadloss=0.340000000
new transformer.102460 Phases=1,Windings=3,Buses=[BMT104769597.3 BBT987932.1.0 BBT987932.0.2],Conns=[wye wye wye],kvs=[7.967 0.12 0.12],kvas=[15.000000000 15.000000000 15.000000000],Taps=[1,1.000000000,1.000000000],XHL=2.123000000,XHT=2.123000000,XLT=1.415000000,%loadloss=1.600000000,%noloadloss=0.400000000
new transformer.102467 Phases=3,Windings=2,Buses=[BMT151159954.1.2.3 BBT987946.1.2.3.0],Conns=[delta wye],kvs=[13.8 0.22],kvas=[30.000000000 30.000000000],Taps=[1,1.000000000],XHL=3.564000000,%loadloss=1.667000000,%noloadloss=0.433333333
new transformer.102474 Phases=3,Windings=2,Buses=[BMT101959181.1.2.3 BBT988009.1.2.3.0],Conns=[delta wye],kvs=[13.8 0.22],kvas=[75.000000000 75.000000000],Taps=[1,1.000000000],XHL=3.721000000,%loadloss=1.340000000,%noloadloss=0.340000000
new transformer.102481 Phases=3,Windings=2,Buses=[BMT151159960.1.2.3 BBT988065.1.2.3.0],Conns=[delta wye],kvs=[13.8 0.22],kvas=[45.000000000 45.000000000],Taps=[1,1.000000000],XHL=3.636000000,%loadloss=1.522000000,%noloadloss=0.377777778
new transformer.102488 Phases=3,Windings=2,Buses=[BMT107476609.1.2.3 BBT988114.1.2.3.0],Conns=[delta wye],kvs=[13.8 0.22],kvas=[75.000000000 75.000000000],Taps=[1,1.000000000],XHL=3.721000000,%loadloss=1.340000000,%noloadloss=0.340000000
new transformer.102495 Phases=3,Windings=2,Buses=[BMT151159958.1.2.3 BBT988198.1.2.3.0],Conns=[delta wye],kvs=[13.8 0.22],kvas=[30.000000000 30.000000000],Taps=[1,1.000000000],XHL=3.564000000,%loadloss=1.667000000,%noloadloss=0.433333333
new transformer.102502 Phases=1,Windings=3,Buses=[BMT104769590.3 BBT988282.1.0 BBT988282.0.2],Conns=[wye wye wye],kvs=[7.967 0.12 0.12],kvas=[5.000000000 5.000000000 5.000000000],Taps=[1,1.000000000,1.000000000],XHL=1.628000000,XHT=1.628000000,XLT=1.085000000,%loadloss=1.900000000,%noloadloss=0.600000000
new transformer.102509 Phases=1,Windings=3,Buses=[BMT174830998.1 BBT988296.1.0 BBT988296.0.2],Conns=[wye wye wye],kvs=[7.967 0.12 0.12],kvas=[10.000000000 10.000000000 10.000000000],Taps=[1,1.000000000,1.000000000],XHL=1.877000000,XHT=1.877000000,XLT=1.252000000,%loadloss=1.800000000,%noloadloss=0.450000000
new transformer.102516 Phases=3,Windings=2,Buses=[BMT150844050.1.2.3 BBT988352.1.2.3.0],Conns=[delta wye],kvs=[13.8 0.22],kvas=[75.000000000 75.000000000],Taps=[1,1.000000000],XHL=3.721000000,%loadloss=1.340000000,%noloadloss=0.340000000
new transformer.102523 Phases=3,Windings=2,Buses=[BMT101958586.1.2.3 BBT988457.1.2.3.0],Conns=[delta wye],kvs=[13.8 0.22],kvas=[45.000000000 45.000000000],Taps=[1,1.000000000],XHL=3.636000000,%loadloss=1.522000000,%noloadloss=0.377777778
new transformer.102530 Phases=3,Windings=2,Buses=[BMT174315789.1.2.3 BBT988541.1.2.3.0],Conns=[delta wye],kvs=[13.8 0.22],kvas=[30.000000000 30.000000000],Taps=[1,1.000000000],XHL=3.564000000,%loadloss=1.667000000,%noloadloss=0.433333333
new transformer.102537 Phases=3,Windings=2,Buses=[BMT151159959.1.2.3 BBT988632.1.2.3.0],Conns=[delta wye],kvs=[13.8 0.22],kvas=[75.000000000 75.000000000],Taps=[1,1.000000000],XHL=3.721000000,%loadloss=1.340000000,%noloadloss=0.340000000
new transformer.102544 Phases=3,Windings=2,Buses=[BMT174315787.1.2.3 BBT988730.1.2.3.0],Conns=[delta wye],kvs=[13.8 0.22],kvas=[30.000000000 30.000000000],Taps=[1,1.000000000],XHL=3.564000000,%loadloss=1.667000000,%noloadloss=0.433333333
new transformer.102551 Phases=3,Windings=2,Buses=[BMT101958565.1.2.3 BBT988800.1.2.3.0],Conns=[delta wye],kvs=[13.8 0.22],kvas=[150.000000000 150.000000000],Taps=[1,1.000000000],XHL=3.805000000,%loadloss=1.127000000,%noloadloss=0.280000000
...
